
---------- Begin Simulation Statistics ----------
simSeconds                                   0.000011                       # Number of seconds simulated (Second)
simTicks                                        11361                       # Number of ticks simulated (Tick)
finalTick                                       11361                       # Number of ticks from beginning of simulation (restored from checkpoints and never reset) (Tick)
simFreq                                    1000000000                       # The number of ticks per simulated second ((Tick/Second))
hostSeconds                                      0.94                       # Real time elapsed on the host (Second)
hostTickRate                                    12139                       # The number of ticks simulated per host second (ticks/s) ((Tick/Second))
hostMemory                                     747052                       # Number of bytes of host memory used (Byte)
system.clk_domain.clock                             1                       # Clock period in ticks (Tick)
system.cpu.power_state.pwrStateResidencyTicks::UNDEFINED        11361                       # Cumulative time (in ticks) in various power states (Tick)
system.mem_ctrls0.avgPriority_ruby.dir_cntrl0::samples         1.00                       # Average QoS priority value for accepted requests (Count)
system.mem_ctrls0.priorityMinLatency     0.000000033000                       # per QoS priority minimum request to response latency (Second)
system.mem_ctrls0.priorityMaxLatency     0.000000033000                       # per QoS priority maximum request to response latency (Second)
system.mem_ctrls0.numReadWriteTurnArounds            0                       # Number of turnarounds from READ to WRITE (Count)
system.mem_ctrls0.numWriteReadTurnArounds            0                       # Number of turnarounds from WRITE to READ (Count)
system.mem_ctrls0.numStayReadState                  4                       # Number of times bus staying in READ state (Count)
system.mem_ctrls0.numStayWriteState                 0                       # Number of times bus staying in WRITE state (Count)
system.mem_ctrls0.readReqs                          1                       # Number of read requests accepted (Count)
system.mem_ctrls0.writeReqs                         0                       # Number of write requests accepted (Count)
system.mem_ctrls0.readBursts                        1                       # Number of controller read bursts, including those serviced by the write queue (Count)
system.mem_ctrls0.writeBursts                       0                       # Number of controller write bursts, including those merged in the write queue (Count)
system.mem_ctrls0.servicedByWrQ                     0                       # Number of controller read bursts serviced by the write queue (Count)
system.mem_ctrls0.mergedWrBursts                    0                       # Number of controller write bursts merged with an existing one (Count)
system.mem_ctrls0.neitherReadNorWriteReqs            0                       # Number of requests that are neither read nor write (Count)
system.mem_ctrls0.avgRdQLen                      0.99                       # Average read queue length when enqueuing ((Count/Tick))
system.mem_ctrls0.avgWrQLen                      0.00                       # Average write queue length when enqueuing ((Count/Tick))
system.mem_ctrls0.numRdRetry                        0                       # Number of times read queue was full causing retry (Count)
system.mem_ctrls0.numWrRetry                        0                       # Number of times write queue was full causing retry (Count)
system.mem_ctrls0.readPktSize::0                    0                       # Read request sizes (log2) (Count)
system.mem_ctrls0.readPktSize::1                    0                       # Read request sizes (log2) (Count)
system.mem_ctrls0.readPktSize::2                    0                       # Read request sizes (log2) (Count)
system.mem_ctrls0.readPktSize::3                    0                       # Read request sizes (log2) (Count)
system.mem_ctrls0.readPktSize::4                    0                       # Read request sizes (log2) (Count)
system.mem_ctrls0.readPktSize::5                    0                       # Read request sizes (log2) (Count)
system.mem_ctrls0.readPktSize::6                    1                       # Read request sizes (log2) (Count)
system.mem_ctrls0.writePktSize::0                   0                       # Write request sizes (log2) (Count)
system.mem_ctrls0.writePktSize::1                   0                       # Write request sizes (log2) (Count)
system.mem_ctrls0.writePktSize::2                   0                       # Write request sizes (log2) (Count)
system.mem_ctrls0.writePktSize::3                   0                       # Write request sizes (log2) (Count)
system.mem_ctrls0.writePktSize::4                   0                       # Write request sizes (log2) (Count)
system.mem_ctrls0.writePktSize::5                   0                       # Write request sizes (log2) (Count)
system.mem_ctrls0.writePktSize::6                   0                       # Write request sizes (log2) (Count)
system.mem_ctrls0.rdQLenPdf::0                      1                       # What read queue length does an incoming req see (Count)
system.mem_ctrls0.rdQLenPdf::1                      0                       # What read queue length does an incoming req see (Count)
system.mem_ctrls0.rdQLenPdf::2                      0                       # What read queue length does an incoming req see (Count)
system.mem_ctrls0.rdQLenPdf::3                      0                       # What read queue length does an incoming req see (Count)
system.mem_ctrls0.rdQLenPdf::4                      0                       # What read queue length does an incoming req see (Count)
system.mem_ctrls0.rdQLenPdf::5                      0                       # What read queue length does an incoming req see (Count)
system.mem_ctrls0.rdQLenPdf::6                      0                       # What read queue length does an incoming req see (Count)
system.mem_ctrls0.rdQLenPdf::7                      0                       # What read queue length does an incoming req see (Count)
system.mem_ctrls0.rdQLenPdf::8                      0                       # What read queue length does an incoming req see (Count)
system.mem_ctrls0.rdQLenPdf::9                      0                       # What read queue length does an incoming req see (Count)
system.mem_ctrls0.rdQLenPdf::10                     0                       # What read queue length does an incoming req see (Count)
system.mem_ctrls0.rdQLenPdf::11                     0                       # What read queue length does an incoming req see (Count)
system.mem_ctrls0.rdQLenPdf::12                     0                       # What read queue length does an incoming req see (Count)
system.mem_ctrls0.rdQLenPdf::13                     0                       # What read queue length does an incoming req see (Count)
system.mem_ctrls0.rdQLenPdf::14                     0                       # What read queue length does an incoming req see (Count)
system.mem_ctrls0.rdQLenPdf::15                     0                       # What read queue length does an incoming req see (Count)
system.mem_ctrls0.rdQLenPdf::16                     0                       # What read queue length does an incoming req see (Count)
system.mem_ctrls0.rdQLenPdf::17                     0                       # What read queue length does an incoming req see (Count)
system.mem_ctrls0.rdQLenPdf::18                     0                       # What read queue length does an incoming req see (Count)
system.mem_ctrls0.rdQLenPdf::19                     0                       # What read queue length does an incoming req see (Count)
system.mem_ctrls0.rdQLenPdf::20                     0                       # What read queue length does an incoming req see (Count)
system.mem_ctrls0.rdQLenPdf::21                     0                       # What read queue length does an incoming req see (Count)
system.mem_ctrls0.rdQLenPdf::22                     0                       # What read queue length does an incoming req see (Count)
system.mem_ctrls0.rdQLenPdf::23                     0                       # What read queue length does an incoming req see (Count)
system.mem_ctrls0.rdQLenPdf::24                     0                       # What read queue length does an incoming req see (Count)
system.mem_ctrls0.rdQLenPdf::25                     0                       # What read queue length does an incoming req see (Count)
system.mem_ctrls0.rdQLenPdf::26                     0                       # What read queue length does an incoming req see (Count)
system.mem_ctrls0.rdQLenPdf::27                     0                       # What read queue length does an incoming req see (Count)
system.mem_ctrls0.rdQLenPdf::28                     0                       # What read queue length does an incoming req see (Count)
system.mem_ctrls0.rdQLenPdf::29                     0                       # What read queue length does an incoming req see (Count)
system.mem_ctrls0.rdQLenPdf::30                     0                       # What read queue length does an incoming req see (Count)
system.mem_ctrls0.rdQLenPdf::31                     0                       # What read queue length does an incoming req see (Count)
system.mem_ctrls0.wrQLenPdf::0                      0                       # What write queue length does an incoming req see (Count)
system.mem_ctrls0.wrQLenPdf::1                      0                       # What write queue length does an incoming req see (Count)
system.mem_ctrls0.wrQLenPdf::2                      0                       # What write queue length does an incoming req see (Count)
system.mem_ctrls0.wrQLenPdf::3                      0                       # What write queue length does an incoming req see (Count)
system.mem_ctrls0.wrQLenPdf::4                      0                       # What write queue length does an incoming req see (Count)
system.mem_ctrls0.wrQLenPdf::5                      0                       # What write queue length does an incoming req see (Count)
system.mem_ctrls0.wrQLenPdf::6                      0                       # What write queue length does an incoming req see (Count)
system.mem_ctrls0.wrQLenPdf::7                      0                       # What write queue length does an incoming req see (Count)
system.mem_ctrls0.wrQLenPdf::8                      0                       # What write queue length does an incoming req see (Count)
system.mem_ctrls0.wrQLenPdf::9                      0                       # What write queue length does an incoming req see (Count)
system.mem_ctrls0.wrQLenPdf::10                     0                       # What write queue length does an incoming req see (Count)
system.mem_ctrls0.wrQLenPdf::11                     0                       # What write queue length does an incoming req see (Count)
system.mem_ctrls0.wrQLenPdf::12                     0                       # What write queue length does an incoming req see (Count)
system.mem_ctrls0.wrQLenPdf::13                     0                       # What write queue length does an incoming req see (Count)
system.mem_ctrls0.wrQLenPdf::14                     0                       # What write queue length does an incoming req see (Count)
system.mem_ctrls0.wrQLenPdf::15                     0                       # What write queue length does an incoming req see (Count)
system.mem_ctrls0.wrQLenPdf::16                     0                       # What write queue length does an incoming req see (Count)
system.mem_ctrls0.wrQLenPdf::17                     0                       # What write queue length does an incoming req see (Count)
system.mem_ctrls0.wrQLenPdf::18                     0                       # What write queue length does an incoming req see (Count)
system.mem_ctrls0.wrQLenPdf::19                     0                       # What write queue length does an incoming req see (Count)
system.mem_ctrls0.wrQLenPdf::20                     0                       # What write queue length does an incoming req see (Count)
system.mem_ctrls0.wrQLenPdf::21                     0                       # What write queue length does an incoming req see (Count)
system.mem_ctrls0.wrQLenPdf::22                     0                       # What write queue length does an incoming req see (Count)
system.mem_ctrls0.wrQLenPdf::23                     0                       # What write queue length does an incoming req see (Count)
system.mem_ctrls0.wrQLenPdf::24                     0                       # What write queue length does an incoming req see (Count)
system.mem_ctrls0.wrQLenPdf::25                     0                       # What write queue length does an incoming req see (Count)
system.mem_ctrls0.wrQLenPdf::26                     0                       # What write queue length does an incoming req see (Count)
system.mem_ctrls0.wrQLenPdf::27                     0                       # What write queue length does an incoming req see (Count)
system.mem_ctrls0.wrQLenPdf::28                     0                       # What write queue length does an incoming req see (Count)
system.mem_ctrls0.wrQLenPdf::29                     0                       # What write queue length does an incoming req see (Count)
system.mem_ctrls0.wrQLenPdf::30                     0                       # What write queue length does an incoming req see (Count)
system.mem_ctrls0.wrQLenPdf::31                     0                       # What write queue length does an incoming req see (Count)
system.mem_ctrls0.wrQLenPdf::32                     0                       # What write queue length does an incoming req see (Count)
system.mem_ctrls0.wrQLenPdf::33                     0                       # What write queue length does an incoming req see (Count)
system.mem_ctrls0.wrQLenPdf::34                     0                       # What write queue length does an incoming req see (Count)
system.mem_ctrls0.wrQLenPdf::35                     0                       # What write queue length does an incoming req see (Count)
system.mem_ctrls0.wrQLenPdf::36                     0                       # What write queue length does an incoming req see (Count)
system.mem_ctrls0.wrQLenPdf::37                     0                       # What write queue length does an incoming req see (Count)
system.mem_ctrls0.wrQLenPdf::38                     0                       # What write queue length does an incoming req see (Count)
system.mem_ctrls0.wrQLenPdf::39                     0                       # What write queue length does an incoming req see (Count)
system.mem_ctrls0.wrQLenPdf::40                     0                       # What write queue length does an incoming req see (Count)
system.mem_ctrls0.wrQLenPdf::41                     0                       # What write queue length does an incoming req see (Count)
system.mem_ctrls0.wrQLenPdf::42                     0                       # What write queue length does an incoming req see (Count)
system.mem_ctrls0.wrQLenPdf::43                     0                       # What write queue length does an incoming req see (Count)
system.mem_ctrls0.wrQLenPdf::44                     0                       # What write queue length does an incoming req see (Count)
system.mem_ctrls0.wrQLenPdf::45                     0                       # What write queue length does an incoming req see (Count)
system.mem_ctrls0.wrQLenPdf::46                     0                       # What write queue length does an incoming req see (Count)
system.mem_ctrls0.wrQLenPdf::47                     0                       # What write queue length does an incoming req see (Count)
system.mem_ctrls0.wrQLenPdf::48                     0                       # What write queue length does an incoming req see (Count)
system.mem_ctrls0.wrQLenPdf::49                     0                       # What write queue length does an incoming req see (Count)
system.mem_ctrls0.wrQLenPdf::50                     0                       # What write queue length does an incoming req see (Count)
system.mem_ctrls0.wrQLenPdf::51                     0                       # What write queue length does an incoming req see (Count)
system.mem_ctrls0.wrQLenPdf::52                     0                       # What write queue length does an incoming req see (Count)
system.mem_ctrls0.wrQLenPdf::53                     0                       # What write queue length does an incoming req see (Count)
system.mem_ctrls0.wrQLenPdf::54                     0                       # What write queue length does an incoming req see (Count)
system.mem_ctrls0.wrQLenPdf::55                     0                       # What write queue length does an incoming req see (Count)
system.mem_ctrls0.wrQLenPdf::56                     0                       # What write queue length does an incoming req see (Count)
system.mem_ctrls0.wrQLenPdf::57                     0                       # What write queue length does an incoming req see (Count)
system.mem_ctrls0.wrQLenPdf::58                     0                       # What write queue length does an incoming req see (Count)
system.mem_ctrls0.wrQLenPdf::59                     0                       # What write queue length does an incoming req see (Count)
system.mem_ctrls0.wrQLenPdf::60                     0                       # What write queue length does an incoming req see (Count)
system.mem_ctrls0.wrQLenPdf::61                     0                       # What write queue length does an incoming req see (Count)
system.mem_ctrls0.wrQLenPdf::62                     0                       # What write queue length does an incoming req see (Count)
system.mem_ctrls0.wrQLenPdf::63                     0                       # What write queue length does an incoming req see (Count)
system.mem_ctrls0.bytesReadWrQ                      0                       # Total number of bytes read from write queue (Byte)
system.mem_ctrls0.bytesReadSys                     64                       # Total read bytes from the system interface side (Byte)
system.mem_ctrls0.bytesWrittenSys                   0                       # Total written bytes from the system interface side (Byte)
system.mem_ctrls0.avgRdBWSys             5633306.92720711                       # Average system read bandwidth in Byte/s ((Byte/Second))
system.mem_ctrls0.avgWrBWSys               0.00000000                       # Average system write bandwidth in Byte/s ((Byte/Second))
system.mem_ctrls0.totGap                            0                       # Total gap between requests (Tick)
system.mem_ctrls0.avgGap                         0.00                       # Average gap between requests ((Tick/Count))
system.mem_ctrls0.requestorReadBytes::ruby.dir_cntrl0           64                       # Per-requestor bytes read from memory (Byte)
system.mem_ctrls0.requestorReadRate::ruby.dir_cntrl0 5633306.927207112312                       # Per-requestor bytes read from memory rate ((Byte/Second))
system.mem_ctrls0.requestorReadAccesses::ruby.dir_cntrl0            1                       # Per-requestor read serviced memory accesses (Count)
system.mem_ctrls0.requestorReadTotalLat::ruby.dir_cntrl0           33                       # Per-requestor read total memory access latency (Tick)
system.mem_ctrls0.requestorReadAvgLat::ruby.dir_cntrl0        33.00                       # Per-requestor read average memory access latency ((Tick/Count))
system.mem_ctrls0.dram.bytesRead::ruby.dir_cntrl0           64                       # Number of bytes read from this memory (Byte)
system.mem_ctrls0.dram.bytesRead::total            64                       # Number of bytes read from this memory (Byte)
system.mem_ctrls0.dram.numReads::ruby.dir_cntrl0            1                       # Number of read requests responded to by this memory (Count)
system.mem_ctrls0.dram.numReads::total              1                       # Number of read requests responded to by this memory (Count)
system.mem_ctrls0.dram.bwRead::ruby.dir_cntrl0      5633307                       # Total read bandwidth from this memory ((Byte/Second))
system.mem_ctrls0.dram.bwRead::total          5633307                       # Total read bandwidth from this memory ((Byte/Second))
system.mem_ctrls0.dram.bwTotal::ruby.dir_cntrl0      5633307                       # Total bandwidth to/from this memory ((Byte/Second))
system.mem_ctrls0.dram.bwTotal::total         5633307                       # Total bandwidth to/from this memory ((Byte/Second))
system.mem_ctrls0.dram.readBursts                   1                       # Number of DRAM read bursts (Count)
system.mem_ctrls0.dram.writeBursts                  0                       # Number of DRAM write bursts (Count)
system.mem_ctrls0.dram.perBankRdBursts::0            1                       # Per bank write bursts (Count)
system.mem_ctrls0.dram.perBankRdBursts::1            0                       # Per bank write bursts (Count)
system.mem_ctrls0.dram.perBankRdBursts::2            0                       # Per bank write bursts (Count)
system.mem_ctrls0.dram.perBankRdBursts::3            0                       # Per bank write bursts (Count)
system.mem_ctrls0.dram.perBankRdBursts::4            0                       # Per bank write bursts (Count)
system.mem_ctrls0.dram.perBankRdBursts::5            0                       # Per bank write bursts (Count)
system.mem_ctrls0.dram.perBankRdBursts::6            0                       # Per bank write bursts (Count)
system.mem_ctrls0.dram.perBankRdBursts::7            0                       # Per bank write bursts (Count)
system.mem_ctrls0.dram.perBankRdBursts::8            0                       # Per bank write bursts (Count)
system.mem_ctrls0.dram.perBankRdBursts::9            0                       # Per bank write bursts (Count)
system.mem_ctrls0.dram.perBankRdBursts::10            0                       # Per bank write bursts (Count)
system.mem_ctrls0.dram.perBankRdBursts::11            0                       # Per bank write bursts (Count)
system.mem_ctrls0.dram.perBankRdBursts::12            0                       # Per bank write bursts (Count)
system.mem_ctrls0.dram.perBankRdBursts::13            0                       # Per bank write bursts (Count)
system.mem_ctrls0.dram.perBankRdBursts::14            0                       # Per bank write bursts (Count)
system.mem_ctrls0.dram.perBankRdBursts::15            0                       # Per bank write bursts (Count)
system.mem_ctrls0.dram.perBankWrBursts::0            0                       # Per bank write bursts (Count)
system.mem_ctrls0.dram.perBankWrBursts::1            0                       # Per bank write bursts (Count)
system.mem_ctrls0.dram.perBankWrBursts::2            0                       # Per bank write bursts (Count)
system.mem_ctrls0.dram.perBankWrBursts::3            0                       # Per bank write bursts (Count)
system.mem_ctrls0.dram.perBankWrBursts::4            0                       # Per bank write bursts (Count)
system.mem_ctrls0.dram.perBankWrBursts::5            0                       # Per bank write bursts (Count)
system.mem_ctrls0.dram.perBankWrBursts::6            0                       # Per bank write bursts (Count)
system.mem_ctrls0.dram.perBankWrBursts::7            0                       # Per bank write bursts (Count)
system.mem_ctrls0.dram.perBankWrBursts::8            0                       # Per bank write bursts (Count)
system.mem_ctrls0.dram.perBankWrBursts::9            0                       # Per bank write bursts (Count)
system.mem_ctrls0.dram.perBankWrBursts::10            0                       # Per bank write bursts (Count)
system.mem_ctrls0.dram.perBankWrBursts::11            0                       # Per bank write bursts (Count)
system.mem_ctrls0.dram.perBankWrBursts::12            0                       # Per bank write bursts (Count)
system.mem_ctrls0.dram.perBankWrBursts::13            0                       # Per bank write bursts (Count)
system.mem_ctrls0.dram.perBankWrBursts::14            0                       # Per bank write bursts (Count)
system.mem_ctrls0.dram.perBankWrBursts::15            0                       # Per bank write bursts (Count)
system.mem_ctrls0.dram.totQLat                     14                       # Total ticks spent queuing (Tick)
system.mem_ctrls0.dram.totBusLat                    5                       # Total ticks spent in databus transfers (Tick)
system.mem_ctrls0.dram.totMemAccLat                33                       # Total ticks spent from burst creation until serviced by the DRAM (Tick)
system.mem_ctrls0.dram.avgQLat                  14.00                       # Average queueing delay per DRAM burst ((Tick/Count))
system.mem_ctrls0.dram.avgBusLat                 5.00                       # Average bus latency per DRAM burst ((Tick/Count))
system.mem_ctrls0.dram.avgMemAccLat             33.00                       # Average memory access latency per DRAM burst ((Tick/Count))
system.mem_ctrls0.dram.readRowHits                  0                       # Number of row buffer hits during reads (Count)
system.mem_ctrls0.dram.writeRowHits                 0                       # Number of row buffer hits during writes (Count)
system.mem_ctrls0.dram.readRowHitRate            0.00                       # Row buffer hit rate for reads (Ratio)
system.mem_ctrls0.dram.writeRowHitRate            nan                       # Row buffer hit rate for writes (Ratio)
system.mem_ctrls0.dram.bytesPerActivate::samples            1                       # Bytes accessed per row activation (Byte)
system.mem_ctrls0.dram.bytesPerActivate::mean           64                       # Bytes accessed per row activation (Byte)
system.mem_ctrls0.dram.bytesPerActivate::gmean    64.000000                       # Bytes accessed per row activation (Byte)
system.mem_ctrls0.dram.bytesPerActivate::stdev          nan                       # Bytes accessed per row activation (Byte)
system.mem_ctrls0.dram.bytesPerActivate::64-71            1    100.00%    100.00% # Bytes accessed per row activation (Byte)
system.mem_ctrls0.dram.bytesPerActivate::total            1                       # Bytes accessed per row activation (Byte)
system.mem_ctrls0.dram.dramBytesRead               64                       # Total bytes read (Byte)
system.mem_ctrls0.dram.dramBytesWritten             0                       # Total bytes written (Byte)
system.mem_ctrls0.dram.avgRdBW               5.633307                       # Average DRAM read bandwidth in MiBytes/s ((Byte/Second))
system.mem_ctrls0.dram.avgWrBW                      0                       # Average DRAM write bandwidth in MiBytes/s ((Byte/Second))
system.mem_ctrls0.dram.peakBW                12800.00                       # Theoretical peak bandwidth in MiByte/s ((Byte/Second))
system.mem_ctrls0.dram.busUtil                   0.04                       # Data bus utilization in percentage (Ratio)
system.mem_ctrls0.dram.busUtilRead               0.04                       # Data bus utilization in percentage for reads (Ratio)
system.mem_ctrls0.dram.busUtilWrite              0.00                       # Data bus utilization in percentage for writes (Ratio)
system.mem_ctrls0.dram.pageHitRate               0.00                       # Row buffer hit rate, read and write combined (Ratio)
system.mem_ctrls0.dram.power_state.pwrStateResidencyTicks::UNDEFINED        11361                       # Cumulative time (in ticks) in various power states (Tick)
system.mem_ctrls0.dram.rank0.actEnergy           7140                       # Energy for activate commands per rank (pJ) (Joule)
system.mem_ctrls0.dram.rank0.preEnergy           3864                       # Energy for precharge commands per rank (pJ) (Joule)
system.mem_ctrls0.dram.rank0.readEnergy          5712                       # Energy for read commands per rank (pJ) (Joule)
system.mem_ctrls0.dram.rank0.writeEnergy            0                       # Energy for write commands per rank (pJ) (Joule)
system.mem_ctrls0.dram.rank0.refreshEnergy 614640.000000                       # Energy for refresh commands per rank (pJ) (Joule)
system.mem_ctrls0.dram.rank0.actBackEnergy      3608784                       # Energy for active background per rank (pJ) (Joule)
system.mem_ctrls0.dram.rank0.preBackEnergy      1323648                       # Energy for precharge background per rank (pJ) (Joule)
system.mem_ctrls0.dram.rank0.actPowerDownEnergy            0                       # Energy for active power-down per rank (pJ) (Joule)
system.mem_ctrls0.dram.rank0.prePowerDownEnergy            0                       # Energy for precharge power-down per rank (pJ) (Joule)
system.mem_ctrls0.dram.rank0.selfRefreshEnergy            0                       # Energy for self refresh per rank (pJ) (Joule)
system.mem_ctrls0.dram.rank0.totalEnergy      5563788                       # Total energy per rank (pJ) (Joule)
system.mem_ctrls0.dram.rank0.averagePower   489.726961                       # Core power per rank (mW) (Watt)
system.mem_ctrls0.dram.rank0.totalIdleTime            0                       # Total Idle time Per DRAM Rank (Tick)
system.mem_ctrls0.dram.rank0.pwrStateTime::IDLE         3419                       # Time in different power states (Tick)
system.mem_ctrls0.dram.rank0.pwrStateTime::REF          260                       # Time in different power states (Tick)
system.mem_ctrls0.dram.rank0.pwrStateTime::SREF            0                       # Time in different power states (Tick)
system.mem_ctrls0.dram.rank0.pwrStateTime::PRE_PDN            0                       # Time in different power states (Tick)
system.mem_ctrls0.dram.rank0.pwrStateTime::ACT         7682                       # Time in different power states (Tick)
system.mem_ctrls0.dram.rank0.pwrStateTime::ACT_PDN            0                       # Time in different power states (Tick)
system.mem_ctrls0.dram.rank1.actEnergy              0                       # Energy for activate commands per rank (pJ) (Joule)
system.mem_ctrls0.dram.rank1.preEnergy              0                       # Energy for precharge commands per rank (pJ) (Joule)
system.mem_ctrls0.dram.rank1.readEnergy             0                       # Energy for read commands per rank (pJ) (Joule)
system.mem_ctrls0.dram.rank1.writeEnergy            0                       # Energy for write commands per rank (pJ) (Joule)
system.mem_ctrls0.dram.rank1.refreshEnergy 614640.000000                       # Energy for refresh commands per rank (pJ) (Joule)
system.mem_ctrls0.dram.rank1.actBackEnergy       112176                       # Energy for active background per rank (pJ) (Joule)
system.mem_ctrls0.dram.rank1.preBackEnergy      4268160                       # Energy for precharge background per rank (pJ) (Joule)
system.mem_ctrls0.dram.rank1.actPowerDownEnergy            0                       # Energy for active power-down per rank (pJ) (Joule)
system.mem_ctrls0.dram.rank1.prePowerDownEnergy            0                       # Energy for precharge power-down per rank (pJ) (Joule)
system.mem_ctrls0.dram.rank1.selfRefreshEnergy            0                       # Energy for self refresh per rank (pJ) (Joule)
system.mem_ctrls0.dram.rank1.totalEnergy      4994976                       # Total energy per rank (pJ) (Joule)
system.mem_ctrls0.dram.rank1.averagePower   439.659889                       # Core power per rank (mW) (Watt)
system.mem_ctrls0.dram.rank1.totalIdleTime            0                       # Total Idle time Per DRAM Rank (Tick)
system.mem_ctrls0.dram.rank1.pwrStateTime::IDLE        11101                       # Time in different power states (Tick)
system.mem_ctrls0.dram.rank1.pwrStateTime::REF          260                       # Time in different power states (Tick)
system.mem_ctrls0.dram.rank1.pwrStateTime::SREF            0                       # Time in different power states (Tick)
system.mem_ctrls0.dram.rank1.pwrStateTime::PRE_PDN            0                       # Time in different power states (Tick)
system.mem_ctrls0.dram.rank1.pwrStateTime::ACT            0                       # Time in different power states (Tick)
system.mem_ctrls0.dram.rank1.pwrStateTime::ACT_PDN            0                       # Time in different power states (Tick)
system.mem_ctrls0.power_state.pwrStateResidencyTicks::UNDEFINED        11361                       # Cumulative time (in ticks) in various power states (Tick)
system.mem_ctrls1.avgPriority_ruby.dir_cntrl1::samples         2.00                       # Average QoS priority value for accepted requests (Count)
system.mem_ctrls1.priorityMinLatency     0.000000033000                       # per QoS priority minimum request to response latency (Second)
system.mem_ctrls1.priorityMaxLatency     0.000000033000                       # per QoS priority maximum request to response latency (Second)
system.mem_ctrls1.numReadWriteTurnArounds            0                       # Number of turnarounds from READ to WRITE (Count)
system.mem_ctrls1.numWriteReadTurnArounds            0                       # Number of turnarounds from WRITE to READ (Count)
system.mem_ctrls1.numStayReadState                 16                       # Number of times bus staying in READ state (Count)
system.mem_ctrls1.numStayWriteState                 0                       # Number of times bus staying in WRITE state (Count)
system.mem_ctrls1.readReqs                         13                       # Number of read requests accepted (Count)
system.mem_ctrls1.writeReqs                        12                       # Number of write requests accepted (Count)
system.mem_ctrls1.readBursts                       13                       # Number of controller read bursts, including those serviced by the write queue (Count)
system.mem_ctrls1.writeBursts                      12                       # Number of controller write bursts, including those merged in the write queue (Count)
system.mem_ctrls1.servicedByWrQ                    12                       # Number of controller read bursts serviced by the write queue (Count)
system.mem_ctrls1.mergedWrBursts                   11                       # Number of controller write bursts merged with an existing one (Count)
system.mem_ctrls1.neitherReadNorWriteReqs            0                       # Number of requests that are neither read nor write (Count)
system.mem_ctrls1.avgRdQLen                      0.90                       # Average read queue length when enqueuing ((Count/Tick))
system.mem_ctrls1.avgWrQLen                      0.81                       # Average write queue length when enqueuing ((Count/Tick))
system.mem_ctrls1.numRdRetry                        0                       # Number of times read queue was full causing retry (Count)
system.mem_ctrls1.numWrRetry                        0                       # Number of times write queue was full causing retry (Count)
system.mem_ctrls1.readPktSize::0                    0                       # Read request sizes (log2) (Count)
system.mem_ctrls1.readPktSize::1                    0                       # Read request sizes (log2) (Count)
system.mem_ctrls1.readPktSize::2                    0                       # Read request sizes (log2) (Count)
system.mem_ctrls1.readPktSize::3                    0                       # Read request sizes (log2) (Count)
system.mem_ctrls1.readPktSize::4                    0                       # Read request sizes (log2) (Count)
system.mem_ctrls1.readPktSize::5                    0                       # Read request sizes (log2) (Count)
system.mem_ctrls1.readPktSize::6                   13                       # Read request sizes (log2) (Count)
system.mem_ctrls1.writePktSize::0                   0                       # Write request sizes (log2) (Count)
system.mem_ctrls1.writePktSize::1                   0                       # Write request sizes (log2) (Count)
system.mem_ctrls1.writePktSize::2                   0                       # Write request sizes (log2) (Count)
system.mem_ctrls1.writePktSize::3                   0                       # Write request sizes (log2) (Count)
system.mem_ctrls1.writePktSize::4                   0                       # Write request sizes (log2) (Count)
system.mem_ctrls1.writePktSize::5                   0                       # Write request sizes (log2) (Count)
system.mem_ctrls1.writePktSize::6                  12                       # Write request sizes (log2) (Count)
system.mem_ctrls1.rdQLenPdf::0                      1                       # What read queue length does an incoming req see (Count)
system.mem_ctrls1.rdQLenPdf::1                      0                       # What read queue length does an incoming req see (Count)
system.mem_ctrls1.rdQLenPdf::2                      0                       # What read queue length does an incoming req see (Count)
system.mem_ctrls1.rdQLenPdf::3                      0                       # What read queue length does an incoming req see (Count)
system.mem_ctrls1.rdQLenPdf::4                      0                       # What read queue length does an incoming req see (Count)
system.mem_ctrls1.rdQLenPdf::5                      0                       # What read queue length does an incoming req see (Count)
system.mem_ctrls1.rdQLenPdf::6                      0                       # What read queue length does an incoming req see (Count)
system.mem_ctrls1.rdQLenPdf::7                      0                       # What read queue length does an incoming req see (Count)
system.mem_ctrls1.rdQLenPdf::8                      0                       # What read queue length does an incoming req see (Count)
system.mem_ctrls1.rdQLenPdf::9                      0                       # What read queue length does an incoming req see (Count)
system.mem_ctrls1.rdQLenPdf::10                     0                       # What read queue length does an incoming req see (Count)
system.mem_ctrls1.rdQLenPdf::11                     0                       # What read queue length does an incoming req see (Count)
system.mem_ctrls1.rdQLenPdf::12                     0                       # What read queue length does an incoming req see (Count)
system.mem_ctrls1.rdQLenPdf::13                     0                       # What read queue length does an incoming req see (Count)
system.mem_ctrls1.rdQLenPdf::14                     0                       # What read queue length does an incoming req see (Count)
system.mem_ctrls1.rdQLenPdf::15                     0                       # What read queue length does an incoming req see (Count)
system.mem_ctrls1.rdQLenPdf::16                     0                       # What read queue length does an incoming req see (Count)
system.mem_ctrls1.rdQLenPdf::17                     0                       # What read queue length does an incoming req see (Count)
system.mem_ctrls1.rdQLenPdf::18                     0                       # What read queue length does an incoming req see (Count)
system.mem_ctrls1.rdQLenPdf::19                     0                       # What read queue length does an incoming req see (Count)
system.mem_ctrls1.rdQLenPdf::20                     0                       # What read queue length does an incoming req see (Count)
system.mem_ctrls1.rdQLenPdf::21                     0                       # What read queue length does an incoming req see (Count)
system.mem_ctrls1.rdQLenPdf::22                     0                       # What read queue length does an incoming req see (Count)
system.mem_ctrls1.rdQLenPdf::23                     0                       # What read queue length does an incoming req see (Count)
system.mem_ctrls1.rdQLenPdf::24                     0                       # What read queue length does an incoming req see (Count)
system.mem_ctrls1.rdQLenPdf::25                     0                       # What read queue length does an incoming req see (Count)
system.mem_ctrls1.rdQLenPdf::26                     0                       # What read queue length does an incoming req see (Count)
system.mem_ctrls1.rdQLenPdf::27                     0                       # What read queue length does an incoming req see (Count)
system.mem_ctrls1.rdQLenPdf::28                     0                       # What read queue length does an incoming req see (Count)
system.mem_ctrls1.rdQLenPdf::29                     0                       # What read queue length does an incoming req see (Count)
system.mem_ctrls1.rdQLenPdf::30                     0                       # What read queue length does an incoming req see (Count)
system.mem_ctrls1.rdQLenPdf::31                     0                       # What read queue length does an incoming req see (Count)
system.mem_ctrls1.wrQLenPdf::0                      1                       # What write queue length does an incoming req see (Count)
system.mem_ctrls1.wrQLenPdf::1                      0                       # What write queue length does an incoming req see (Count)
system.mem_ctrls1.wrQLenPdf::2                      0                       # What write queue length does an incoming req see (Count)
system.mem_ctrls1.wrQLenPdf::3                      0                       # What write queue length does an incoming req see (Count)
system.mem_ctrls1.wrQLenPdf::4                      0                       # What write queue length does an incoming req see (Count)
system.mem_ctrls1.wrQLenPdf::5                      0                       # What write queue length does an incoming req see (Count)
system.mem_ctrls1.wrQLenPdf::6                      0                       # What write queue length does an incoming req see (Count)
system.mem_ctrls1.wrQLenPdf::7                      0                       # What write queue length does an incoming req see (Count)
system.mem_ctrls1.wrQLenPdf::8                      0                       # What write queue length does an incoming req see (Count)
system.mem_ctrls1.wrQLenPdf::9                      0                       # What write queue length does an incoming req see (Count)
system.mem_ctrls1.wrQLenPdf::10                     0                       # What write queue length does an incoming req see (Count)
system.mem_ctrls1.wrQLenPdf::11                     0                       # What write queue length does an incoming req see (Count)
system.mem_ctrls1.wrQLenPdf::12                     0                       # What write queue length does an incoming req see (Count)
system.mem_ctrls1.wrQLenPdf::13                     0                       # What write queue length does an incoming req see (Count)
system.mem_ctrls1.wrQLenPdf::14                     0                       # What write queue length does an incoming req see (Count)
system.mem_ctrls1.wrQLenPdf::15                     0                       # What write queue length does an incoming req see (Count)
system.mem_ctrls1.wrQLenPdf::16                     0                       # What write queue length does an incoming req see (Count)
system.mem_ctrls1.wrQLenPdf::17                     0                       # What write queue length does an incoming req see (Count)
system.mem_ctrls1.wrQLenPdf::18                     0                       # What write queue length does an incoming req see (Count)
system.mem_ctrls1.wrQLenPdf::19                     0                       # What write queue length does an incoming req see (Count)
system.mem_ctrls1.wrQLenPdf::20                     0                       # What write queue length does an incoming req see (Count)
system.mem_ctrls1.wrQLenPdf::21                     0                       # What write queue length does an incoming req see (Count)
system.mem_ctrls1.wrQLenPdf::22                     0                       # What write queue length does an incoming req see (Count)
system.mem_ctrls1.wrQLenPdf::23                     0                       # What write queue length does an incoming req see (Count)
system.mem_ctrls1.wrQLenPdf::24                     0                       # What write queue length does an incoming req see (Count)
system.mem_ctrls1.wrQLenPdf::25                     0                       # What write queue length does an incoming req see (Count)
system.mem_ctrls1.wrQLenPdf::26                     0                       # What write queue length does an incoming req see (Count)
system.mem_ctrls1.wrQLenPdf::27                     0                       # What write queue length does an incoming req see (Count)
system.mem_ctrls1.wrQLenPdf::28                     0                       # What write queue length does an incoming req see (Count)
system.mem_ctrls1.wrQLenPdf::29                     0                       # What write queue length does an incoming req see (Count)
system.mem_ctrls1.wrQLenPdf::30                     0                       # What write queue length does an incoming req see (Count)
system.mem_ctrls1.wrQLenPdf::31                     0                       # What write queue length does an incoming req see (Count)
system.mem_ctrls1.wrQLenPdf::32                     0                       # What write queue length does an incoming req see (Count)
system.mem_ctrls1.wrQLenPdf::33                     0                       # What write queue length does an incoming req see (Count)
system.mem_ctrls1.wrQLenPdf::34                     0                       # What write queue length does an incoming req see (Count)
system.mem_ctrls1.wrQLenPdf::35                     0                       # What write queue length does an incoming req see (Count)
system.mem_ctrls1.wrQLenPdf::36                     0                       # What write queue length does an incoming req see (Count)
system.mem_ctrls1.wrQLenPdf::37                     0                       # What write queue length does an incoming req see (Count)
system.mem_ctrls1.wrQLenPdf::38                     0                       # What write queue length does an incoming req see (Count)
system.mem_ctrls1.wrQLenPdf::39                     0                       # What write queue length does an incoming req see (Count)
system.mem_ctrls1.wrQLenPdf::40                     0                       # What write queue length does an incoming req see (Count)
system.mem_ctrls1.wrQLenPdf::41                     0                       # What write queue length does an incoming req see (Count)
system.mem_ctrls1.wrQLenPdf::42                     0                       # What write queue length does an incoming req see (Count)
system.mem_ctrls1.wrQLenPdf::43                     0                       # What write queue length does an incoming req see (Count)
system.mem_ctrls1.wrQLenPdf::44                     0                       # What write queue length does an incoming req see (Count)
system.mem_ctrls1.wrQLenPdf::45                     0                       # What write queue length does an incoming req see (Count)
system.mem_ctrls1.wrQLenPdf::46                     0                       # What write queue length does an incoming req see (Count)
system.mem_ctrls1.wrQLenPdf::47                     0                       # What write queue length does an incoming req see (Count)
system.mem_ctrls1.wrQLenPdf::48                     0                       # What write queue length does an incoming req see (Count)
system.mem_ctrls1.wrQLenPdf::49                     0                       # What write queue length does an incoming req see (Count)
system.mem_ctrls1.wrQLenPdf::50                     0                       # What write queue length does an incoming req see (Count)
system.mem_ctrls1.wrQLenPdf::51                     0                       # What write queue length does an incoming req see (Count)
system.mem_ctrls1.wrQLenPdf::52                     0                       # What write queue length does an incoming req see (Count)
system.mem_ctrls1.wrQLenPdf::53                     0                       # What write queue length does an incoming req see (Count)
system.mem_ctrls1.wrQLenPdf::54                     0                       # What write queue length does an incoming req see (Count)
system.mem_ctrls1.wrQLenPdf::55                     0                       # What write queue length does an incoming req see (Count)
system.mem_ctrls1.wrQLenPdf::56                     0                       # What write queue length does an incoming req see (Count)
system.mem_ctrls1.wrQLenPdf::57                     0                       # What write queue length does an incoming req see (Count)
system.mem_ctrls1.wrQLenPdf::58                     0                       # What write queue length does an incoming req see (Count)
system.mem_ctrls1.wrQLenPdf::59                     0                       # What write queue length does an incoming req see (Count)
system.mem_ctrls1.wrQLenPdf::60                     0                       # What write queue length does an incoming req see (Count)
system.mem_ctrls1.wrQLenPdf::61                     0                       # What write queue length does an incoming req see (Count)
system.mem_ctrls1.wrQLenPdf::62                     0                       # What write queue length does an incoming req see (Count)
system.mem_ctrls1.wrQLenPdf::63                     0                       # What write queue length does an incoming req see (Count)
system.mem_ctrls1.bytesReadWrQ                    768                       # Total number of bytes read from write queue (Byte)
system.mem_ctrls1.bytesReadSys                    832                       # Total read bytes from the system interface side (Byte)
system.mem_ctrls1.bytesWrittenSys                 768                       # Total written bytes from the system interface side (Byte)
system.mem_ctrls1.avgRdBWSys             73232990.05369246                       # Average system read bandwidth in Byte/s ((Byte/Second))
system.mem_ctrls1.avgWrBWSys             67599683.12648535                       # Average system write bandwidth in Byte/s ((Byte/Second))
system.mem_ctrls1.totGap                        10240                       # Total gap between requests (Tick)
system.mem_ctrls1.avgGap                       409.60                       # Average gap between requests ((Tick/Count))
system.mem_ctrls1.requestorReadBytes::ruby.dir_cntrl1           64                       # Per-requestor bytes read from memory (Byte)
system.mem_ctrls1.requestorReadRate::ruby.dir_cntrl1 5633306.927207112312                       # Per-requestor bytes read from memory rate ((Byte/Second))
system.mem_ctrls1.requestorReadAccesses::ruby.dir_cntrl1           13                       # Per-requestor read serviced memory accesses (Count)
system.mem_ctrls1.requestorWriteAccesses::ruby.dir_cntrl1           12                       # Per-requestor write serviced memory accesses (Count)
system.mem_ctrls1.requestorReadTotalLat::ruby.dir_cntrl1           33                       # Per-requestor read total memory access latency (Tick)
system.mem_ctrls1.requestorReadAvgLat::ruby.dir_cntrl1         2.54                       # Per-requestor read average memory access latency ((Tick/Count))
system.mem_ctrls1.requestorWriteAvgLat::ruby.dir_cntrl1         0.00                       # Per-requestor write average memory access latency ((Tick/Count))
system.mem_ctrls1.dram.bytesRead::ruby.dir_cntrl1          832                       # Number of bytes read from this memory (Byte)
system.mem_ctrls1.dram.bytesRead::total           832                       # Number of bytes read from this memory (Byte)
system.mem_ctrls1.dram.bytesWritten::ruby.dir_cntrl1          768                       # Number of bytes written to this memory (Byte)
system.mem_ctrls1.dram.bytesWritten::total          768                       # Number of bytes written to this memory (Byte)
system.mem_ctrls1.dram.numReads::ruby.dir_cntrl1           13                       # Number of read requests responded to by this memory (Count)
system.mem_ctrls1.dram.numReads::total             13                       # Number of read requests responded to by this memory (Count)
system.mem_ctrls1.dram.numWrites::ruby.dir_cntrl1           12                       # Number of write requests responded to by this memory (Count)
system.mem_ctrls1.dram.numWrites::total            12                       # Number of write requests responded to by this memory (Count)
system.mem_ctrls1.dram.bwRead::ruby.dir_cntrl1     73232990                       # Total read bandwidth from this memory ((Byte/Second))
system.mem_ctrls1.dram.bwRead::total         73232990                       # Total read bandwidth from this memory ((Byte/Second))
system.mem_ctrls1.dram.bwWrite::ruby.dir_cntrl1     67599683                       # Write bandwidth from this memory ((Byte/Second))
system.mem_ctrls1.dram.bwWrite::total        67599683                       # Write bandwidth from this memory ((Byte/Second))
system.mem_ctrls1.dram.bwTotal::ruby.dir_cntrl1    140832673                       # Total bandwidth to/from this memory ((Byte/Second))
system.mem_ctrls1.dram.bwTotal::total       140832673                       # Total bandwidth to/from this memory ((Byte/Second))
system.mem_ctrls1.dram.readBursts                   1                       # Number of DRAM read bursts (Count)
system.mem_ctrls1.dram.writeBursts                  0                       # Number of DRAM write bursts (Count)
system.mem_ctrls1.dram.perBankRdBursts::0            1                       # Per bank write bursts (Count)
system.mem_ctrls1.dram.perBankRdBursts::1            0                       # Per bank write bursts (Count)
system.mem_ctrls1.dram.perBankRdBursts::2            0                       # Per bank write bursts (Count)
system.mem_ctrls1.dram.perBankRdBursts::3            0                       # Per bank write bursts (Count)
system.mem_ctrls1.dram.perBankRdBursts::4            0                       # Per bank write bursts (Count)
system.mem_ctrls1.dram.perBankRdBursts::5            0                       # Per bank write bursts (Count)
system.mem_ctrls1.dram.perBankRdBursts::6            0                       # Per bank write bursts (Count)
system.mem_ctrls1.dram.perBankRdBursts::7            0                       # Per bank write bursts (Count)
system.mem_ctrls1.dram.perBankRdBursts::8            0                       # Per bank write bursts (Count)
system.mem_ctrls1.dram.perBankRdBursts::9            0                       # Per bank write bursts (Count)
system.mem_ctrls1.dram.perBankRdBursts::10            0                       # Per bank write bursts (Count)
system.mem_ctrls1.dram.perBankRdBursts::11            0                       # Per bank write bursts (Count)
system.mem_ctrls1.dram.perBankRdBursts::12            0                       # Per bank write bursts (Count)
system.mem_ctrls1.dram.perBankRdBursts::13            0                       # Per bank write bursts (Count)
system.mem_ctrls1.dram.perBankRdBursts::14            0                       # Per bank write bursts (Count)
system.mem_ctrls1.dram.perBankRdBursts::15            0                       # Per bank write bursts (Count)
system.mem_ctrls1.dram.perBankWrBursts::0            0                       # Per bank write bursts (Count)
system.mem_ctrls1.dram.perBankWrBursts::1            0                       # Per bank write bursts (Count)
system.mem_ctrls1.dram.perBankWrBursts::2            0                       # Per bank write bursts (Count)
system.mem_ctrls1.dram.perBankWrBursts::3            0                       # Per bank write bursts (Count)
system.mem_ctrls1.dram.perBankWrBursts::4            0                       # Per bank write bursts (Count)
system.mem_ctrls1.dram.perBankWrBursts::5            0                       # Per bank write bursts (Count)
system.mem_ctrls1.dram.perBankWrBursts::6            0                       # Per bank write bursts (Count)
system.mem_ctrls1.dram.perBankWrBursts::7            0                       # Per bank write bursts (Count)
system.mem_ctrls1.dram.perBankWrBursts::8            0                       # Per bank write bursts (Count)
system.mem_ctrls1.dram.perBankWrBursts::9            0                       # Per bank write bursts (Count)
system.mem_ctrls1.dram.perBankWrBursts::10            0                       # Per bank write bursts (Count)
system.mem_ctrls1.dram.perBankWrBursts::11            0                       # Per bank write bursts (Count)
system.mem_ctrls1.dram.perBankWrBursts::12            0                       # Per bank write bursts (Count)
system.mem_ctrls1.dram.perBankWrBursts::13            0                       # Per bank write bursts (Count)
system.mem_ctrls1.dram.perBankWrBursts::14            0                       # Per bank write bursts (Count)
system.mem_ctrls1.dram.perBankWrBursts::15            0                       # Per bank write bursts (Count)
system.mem_ctrls1.dram.totQLat                     14                       # Total ticks spent queuing (Tick)
system.mem_ctrls1.dram.totBusLat                    5                       # Total ticks spent in databus transfers (Tick)
system.mem_ctrls1.dram.totMemAccLat                33                       # Total ticks spent from burst creation until serviced by the DRAM (Tick)
system.mem_ctrls1.dram.avgQLat                  14.00                       # Average queueing delay per DRAM burst ((Tick/Count))
system.mem_ctrls1.dram.avgBusLat                 5.00                       # Average bus latency per DRAM burst ((Tick/Count))
system.mem_ctrls1.dram.avgMemAccLat             33.00                       # Average memory access latency per DRAM burst ((Tick/Count))
system.mem_ctrls1.dram.readRowHits                  0                       # Number of row buffer hits during reads (Count)
system.mem_ctrls1.dram.writeRowHits                 0                       # Number of row buffer hits during writes (Count)
system.mem_ctrls1.dram.readRowHitRate            0.00                       # Row buffer hit rate for reads (Ratio)
system.mem_ctrls1.dram.writeRowHitRate            nan                       # Row buffer hit rate for writes (Ratio)
system.mem_ctrls1.dram.bytesPerActivate::samples            1                       # Bytes accessed per row activation (Byte)
system.mem_ctrls1.dram.bytesPerActivate::mean           64                       # Bytes accessed per row activation (Byte)
system.mem_ctrls1.dram.bytesPerActivate::gmean    64.000000                       # Bytes accessed per row activation (Byte)
system.mem_ctrls1.dram.bytesPerActivate::stdev          nan                       # Bytes accessed per row activation (Byte)
system.mem_ctrls1.dram.bytesPerActivate::64-71            1    100.00%    100.00% # Bytes accessed per row activation (Byte)
system.mem_ctrls1.dram.bytesPerActivate::total            1                       # Bytes accessed per row activation (Byte)
system.mem_ctrls1.dram.dramBytesRead               64                       # Total bytes read (Byte)
system.mem_ctrls1.dram.dramBytesWritten             0                       # Total bytes written (Byte)
system.mem_ctrls1.dram.avgRdBW               5.633307                       # Average DRAM read bandwidth in MiBytes/s ((Byte/Second))
system.mem_ctrls1.dram.avgWrBW                      0                       # Average DRAM write bandwidth in MiBytes/s ((Byte/Second))
system.mem_ctrls1.dram.peakBW                12800.00                       # Theoretical peak bandwidth in MiByte/s ((Byte/Second))
system.mem_ctrls1.dram.busUtil                   0.04                       # Data bus utilization in percentage (Ratio)
system.mem_ctrls1.dram.busUtilRead               0.04                       # Data bus utilization in percentage for reads (Ratio)
system.mem_ctrls1.dram.busUtilWrite              0.00                       # Data bus utilization in percentage for writes (Ratio)
system.mem_ctrls1.dram.pageHitRate               0.00                       # Row buffer hit rate, read and write combined (Ratio)
system.mem_ctrls1.dram.power_state.pwrStateResidencyTicks::UNDEFINED        11361                       # Cumulative time (in ticks) in various power states (Tick)
system.mem_ctrls1.dram.rank0.actEnergy           7140                       # Energy for activate commands per rank (pJ) (Joule)
system.mem_ctrls1.dram.rank0.preEnergy           3864                       # Energy for precharge commands per rank (pJ) (Joule)
system.mem_ctrls1.dram.rank0.readEnergy          5712                       # Energy for read commands per rank (pJ) (Joule)
system.mem_ctrls1.dram.rank0.writeEnergy            0                       # Energy for write commands per rank (pJ) (Joule)
system.mem_ctrls1.dram.rank0.refreshEnergy 614640.000000                       # Energy for refresh commands per rank (pJ) (Joule)
system.mem_ctrls1.dram.rank0.actBackEnergy      3163728                       # Energy for active background per rank (pJ) (Joule)
system.mem_ctrls1.dram.rank0.preBackEnergy      1698432                       # Energy for precharge background per rank (pJ) (Joule)
system.mem_ctrls1.dram.rank0.actPowerDownEnergy            0                       # Energy for active power-down per rank (pJ) (Joule)
system.mem_ctrls1.dram.rank0.prePowerDownEnergy            0                       # Energy for precharge power-down per rank (pJ) (Joule)
system.mem_ctrls1.dram.rank0.selfRefreshEnergy            0                       # Energy for self refresh per rank (pJ) (Joule)
system.mem_ctrls1.dram.rank0.totalEnergy      5493516                       # Total energy per rank (pJ) (Joule)
system.mem_ctrls1.dram.rank0.averagePower   483.541590                       # Core power per rank (mW) (Watt)
system.mem_ctrls1.dram.rank0.totalIdleTime            0                       # Total Idle time Per DRAM Rank (Tick)
system.mem_ctrls1.dram.rank0.pwrStateTime::IDLE         4395                       # Time in different power states (Tick)
system.mem_ctrls1.dram.rank0.pwrStateTime::REF          260                       # Time in different power states (Tick)
system.mem_ctrls1.dram.rank0.pwrStateTime::SREF            0                       # Time in different power states (Tick)
system.mem_ctrls1.dram.rank0.pwrStateTime::PRE_PDN            0                       # Time in different power states (Tick)
system.mem_ctrls1.dram.rank0.pwrStateTime::ACT         6706                       # Time in different power states (Tick)
system.mem_ctrls1.dram.rank0.pwrStateTime::ACT_PDN            0                       # Time in different power states (Tick)
system.mem_ctrls1.dram.rank1.actEnergy              0                       # Energy for activate commands per rank (pJ) (Joule)
system.mem_ctrls1.dram.rank1.preEnergy              0                       # Energy for precharge commands per rank (pJ) (Joule)
system.mem_ctrls1.dram.rank1.readEnergy             0                       # Energy for read commands per rank (pJ) (Joule)
system.mem_ctrls1.dram.rank1.writeEnergy            0                       # Energy for write commands per rank (pJ) (Joule)
system.mem_ctrls1.dram.rank1.refreshEnergy 614640.000000                       # Energy for refresh commands per rank (pJ) (Joule)
system.mem_ctrls1.dram.rank1.actBackEnergy       112176                       # Energy for active background per rank (pJ) (Joule)
system.mem_ctrls1.dram.rank1.preBackEnergy      4268160                       # Energy for precharge background per rank (pJ) (Joule)
system.mem_ctrls1.dram.rank1.actPowerDownEnergy            0                       # Energy for active power-down per rank (pJ) (Joule)
system.mem_ctrls1.dram.rank1.prePowerDownEnergy            0                       # Energy for precharge power-down per rank (pJ) (Joule)
system.mem_ctrls1.dram.rank1.selfRefreshEnergy            0                       # Energy for self refresh per rank (pJ) (Joule)
system.mem_ctrls1.dram.rank1.totalEnergy      4994976                       # Total energy per rank (pJ) (Joule)
system.mem_ctrls1.dram.rank1.averagePower   439.659889                       # Core power per rank (mW) (Watt)
system.mem_ctrls1.dram.rank1.totalIdleTime            0                       # Total Idle time Per DRAM Rank (Tick)
system.mem_ctrls1.dram.rank1.pwrStateTime::IDLE        11101                       # Time in different power states (Tick)
system.mem_ctrls1.dram.rank1.pwrStateTime::REF          260                       # Time in different power states (Tick)
system.mem_ctrls1.dram.rank1.pwrStateTime::SREF            0                       # Time in different power states (Tick)
system.mem_ctrls1.dram.rank1.pwrStateTime::PRE_PDN            0                       # Time in different power states (Tick)
system.mem_ctrls1.dram.rank1.pwrStateTime::ACT            0                       # Time in different power states (Tick)
system.mem_ctrls1.dram.rank1.pwrStateTime::ACT_PDN            0                       # Time in different power states (Tick)
system.mem_ctrls1.power_state.pwrStateResidencyTicks::UNDEFINED        11361                       # Cumulative time (in ticks) in various power states (Tick)
system.mem_ctrls10.priorityMinLatency    0.000000000000                       # per QoS priority minimum request to response latency (Second)
system.mem_ctrls10.priorityMaxLatency    0.000000000000                       # per QoS priority maximum request to response latency (Second)
system.mem_ctrls10.numReadWriteTurnArounds            0                       # Number of turnarounds from READ to WRITE (Count)
system.mem_ctrls10.numWriteReadTurnArounds            0                       # Number of turnarounds from WRITE to READ (Count)
system.mem_ctrls10.numStayReadState                 2                       # Number of times bus staying in READ state (Count)
system.mem_ctrls10.numStayWriteState                0                       # Number of times bus staying in WRITE state (Count)
system.mem_ctrls10.readReqs                         0                       # Number of read requests accepted (Count)
system.mem_ctrls10.writeReqs                        0                       # Number of write requests accepted (Count)
system.mem_ctrls10.readBursts                       0                       # Number of controller read bursts, including those serviced by the write queue (Count)
system.mem_ctrls10.writeBursts                      0                       # Number of controller write bursts, including those merged in the write queue (Count)
system.mem_ctrls10.servicedByWrQ                    0                       # Number of controller read bursts serviced by the write queue (Count)
system.mem_ctrls10.mergedWrBursts                   0                       # Number of controller write bursts merged with an existing one (Count)
system.mem_ctrls10.neitherReadNorWriteReqs            0                       # Number of requests that are neither read nor write (Count)
system.mem_ctrls10.avgRdQLen                     0.00                       # Average read queue length when enqueuing ((Count/Tick))
system.mem_ctrls10.avgWrQLen                     0.00                       # Average write queue length when enqueuing ((Count/Tick))
system.mem_ctrls10.numRdRetry                       0                       # Number of times read queue was full causing retry (Count)
system.mem_ctrls10.numWrRetry                       0                       # Number of times write queue was full causing retry (Count)
system.mem_ctrls10.readPktSize::0                   0                       # Read request sizes (log2) (Count)
system.mem_ctrls10.readPktSize::1                   0                       # Read request sizes (log2) (Count)
system.mem_ctrls10.readPktSize::2                   0                       # Read request sizes (log2) (Count)
system.mem_ctrls10.readPktSize::3                   0                       # Read request sizes (log2) (Count)
system.mem_ctrls10.readPktSize::4                   0                       # Read request sizes (log2) (Count)
system.mem_ctrls10.readPktSize::5                   0                       # Read request sizes (log2) (Count)
system.mem_ctrls10.readPktSize::6                   0                       # Read request sizes (log2) (Count)
system.mem_ctrls10.writePktSize::0                  0                       # Write request sizes (log2) (Count)
system.mem_ctrls10.writePktSize::1                  0                       # Write request sizes (log2) (Count)
system.mem_ctrls10.writePktSize::2                  0                       # Write request sizes (log2) (Count)
system.mem_ctrls10.writePktSize::3                  0                       # Write request sizes (log2) (Count)
system.mem_ctrls10.writePktSize::4                  0                       # Write request sizes (log2) (Count)
system.mem_ctrls10.writePktSize::5                  0                       # Write request sizes (log2) (Count)
system.mem_ctrls10.writePktSize::6                  0                       # Write request sizes (log2) (Count)
system.mem_ctrls10.rdQLenPdf::0                     0                       # What read queue length does an incoming req see (Count)
system.mem_ctrls10.rdQLenPdf::1                     0                       # What read queue length does an incoming req see (Count)
system.mem_ctrls10.rdQLenPdf::2                     0                       # What read queue length does an incoming req see (Count)
system.mem_ctrls10.rdQLenPdf::3                     0                       # What read queue length does an incoming req see (Count)
system.mem_ctrls10.rdQLenPdf::4                     0                       # What read queue length does an incoming req see (Count)
system.mem_ctrls10.rdQLenPdf::5                     0                       # What read queue length does an incoming req see (Count)
system.mem_ctrls10.rdQLenPdf::6                     0                       # What read queue length does an incoming req see (Count)
system.mem_ctrls10.rdQLenPdf::7                     0                       # What read queue length does an incoming req see (Count)
system.mem_ctrls10.rdQLenPdf::8                     0                       # What read queue length does an incoming req see (Count)
system.mem_ctrls10.rdQLenPdf::9                     0                       # What read queue length does an incoming req see (Count)
system.mem_ctrls10.rdQLenPdf::10                    0                       # What read queue length does an incoming req see (Count)
system.mem_ctrls10.rdQLenPdf::11                    0                       # What read queue length does an incoming req see (Count)
system.mem_ctrls10.rdQLenPdf::12                    0                       # What read queue length does an incoming req see (Count)
system.mem_ctrls10.rdQLenPdf::13                    0                       # What read queue length does an incoming req see (Count)
system.mem_ctrls10.rdQLenPdf::14                    0                       # What read queue length does an incoming req see (Count)
system.mem_ctrls10.rdQLenPdf::15                    0                       # What read queue length does an incoming req see (Count)
system.mem_ctrls10.rdQLenPdf::16                    0                       # What read queue length does an incoming req see (Count)
system.mem_ctrls10.rdQLenPdf::17                    0                       # What read queue length does an incoming req see (Count)
system.mem_ctrls10.rdQLenPdf::18                    0                       # What read queue length does an incoming req see (Count)
system.mem_ctrls10.rdQLenPdf::19                    0                       # What read queue length does an incoming req see (Count)
system.mem_ctrls10.rdQLenPdf::20                    0                       # What read queue length does an incoming req see (Count)
system.mem_ctrls10.rdQLenPdf::21                    0                       # What read queue length does an incoming req see (Count)
system.mem_ctrls10.rdQLenPdf::22                    0                       # What read queue length does an incoming req see (Count)
system.mem_ctrls10.rdQLenPdf::23                    0                       # What read queue length does an incoming req see (Count)
system.mem_ctrls10.rdQLenPdf::24                    0                       # What read queue length does an incoming req see (Count)
system.mem_ctrls10.rdQLenPdf::25                    0                       # What read queue length does an incoming req see (Count)
system.mem_ctrls10.rdQLenPdf::26                    0                       # What read queue length does an incoming req see (Count)
system.mem_ctrls10.rdQLenPdf::27                    0                       # What read queue length does an incoming req see (Count)
system.mem_ctrls10.rdQLenPdf::28                    0                       # What read queue length does an incoming req see (Count)
system.mem_ctrls10.rdQLenPdf::29                    0                       # What read queue length does an incoming req see (Count)
system.mem_ctrls10.rdQLenPdf::30                    0                       # What read queue length does an incoming req see (Count)
system.mem_ctrls10.rdQLenPdf::31                    0                       # What read queue length does an incoming req see (Count)
system.mem_ctrls10.wrQLenPdf::0                     0                       # What write queue length does an incoming req see (Count)
system.mem_ctrls10.wrQLenPdf::1                     0                       # What write queue length does an incoming req see (Count)
system.mem_ctrls10.wrQLenPdf::2                     0                       # What write queue length does an incoming req see (Count)
system.mem_ctrls10.wrQLenPdf::3                     0                       # What write queue length does an incoming req see (Count)
system.mem_ctrls10.wrQLenPdf::4                     0                       # What write queue length does an incoming req see (Count)
system.mem_ctrls10.wrQLenPdf::5                     0                       # What write queue length does an incoming req see (Count)
system.mem_ctrls10.wrQLenPdf::6                     0                       # What write queue length does an incoming req see (Count)
system.mem_ctrls10.wrQLenPdf::7                     0                       # What write queue length does an incoming req see (Count)
system.mem_ctrls10.wrQLenPdf::8                     0                       # What write queue length does an incoming req see (Count)
system.mem_ctrls10.wrQLenPdf::9                     0                       # What write queue length does an incoming req see (Count)
system.mem_ctrls10.wrQLenPdf::10                    0                       # What write queue length does an incoming req see (Count)
system.mem_ctrls10.wrQLenPdf::11                    0                       # What write queue length does an incoming req see (Count)
system.mem_ctrls10.wrQLenPdf::12                    0                       # What write queue length does an incoming req see (Count)
system.mem_ctrls10.wrQLenPdf::13                    0                       # What write queue length does an incoming req see (Count)
system.mem_ctrls10.wrQLenPdf::14                    0                       # What write queue length does an incoming req see (Count)
system.mem_ctrls10.wrQLenPdf::15                    0                       # What write queue length does an incoming req see (Count)
system.mem_ctrls10.wrQLenPdf::16                    0                       # What write queue length does an incoming req see (Count)
system.mem_ctrls10.wrQLenPdf::17                    0                       # What write queue length does an incoming req see (Count)
system.mem_ctrls10.wrQLenPdf::18                    0                       # What write queue length does an incoming req see (Count)
system.mem_ctrls10.wrQLenPdf::19                    0                       # What write queue length does an incoming req see (Count)
system.mem_ctrls10.wrQLenPdf::20                    0                       # What write queue length does an incoming req see (Count)
system.mem_ctrls10.wrQLenPdf::21                    0                       # What write queue length does an incoming req see (Count)
system.mem_ctrls10.wrQLenPdf::22                    0                       # What write queue length does an incoming req see (Count)
system.mem_ctrls10.wrQLenPdf::23                    0                       # What write queue length does an incoming req see (Count)
system.mem_ctrls10.wrQLenPdf::24                    0                       # What write queue length does an incoming req see (Count)
system.mem_ctrls10.wrQLenPdf::25                    0                       # What write queue length does an incoming req see (Count)
system.mem_ctrls10.wrQLenPdf::26                    0                       # What write queue length does an incoming req see (Count)
system.mem_ctrls10.wrQLenPdf::27                    0                       # What write queue length does an incoming req see (Count)
system.mem_ctrls10.wrQLenPdf::28                    0                       # What write queue length does an incoming req see (Count)
system.mem_ctrls10.wrQLenPdf::29                    0                       # What write queue length does an incoming req see (Count)
system.mem_ctrls10.wrQLenPdf::30                    0                       # What write queue length does an incoming req see (Count)
system.mem_ctrls10.wrQLenPdf::31                    0                       # What write queue length does an incoming req see (Count)
system.mem_ctrls10.wrQLenPdf::32                    0                       # What write queue length does an incoming req see (Count)
system.mem_ctrls10.wrQLenPdf::33                    0                       # What write queue length does an incoming req see (Count)
system.mem_ctrls10.wrQLenPdf::34                    0                       # What write queue length does an incoming req see (Count)
system.mem_ctrls10.wrQLenPdf::35                    0                       # What write queue length does an incoming req see (Count)
system.mem_ctrls10.wrQLenPdf::36                    0                       # What write queue length does an incoming req see (Count)
system.mem_ctrls10.wrQLenPdf::37                    0                       # What write queue length does an incoming req see (Count)
system.mem_ctrls10.wrQLenPdf::38                    0                       # What write queue length does an incoming req see (Count)
system.mem_ctrls10.wrQLenPdf::39                    0                       # What write queue length does an incoming req see (Count)
system.mem_ctrls10.wrQLenPdf::40                    0                       # What write queue length does an incoming req see (Count)
system.mem_ctrls10.wrQLenPdf::41                    0                       # What write queue length does an incoming req see (Count)
system.mem_ctrls10.wrQLenPdf::42                    0                       # What write queue length does an incoming req see (Count)
system.mem_ctrls10.wrQLenPdf::43                    0                       # What write queue length does an incoming req see (Count)
[...]
system.ruby.network.data_traffic_distribution.n4.n11            2                       (Unspecified)
system.ruby.network.data_traffic_distribution.n4.n12            1                       (Unspecified)
system.ruby.network.data_traffic_distribution.n4.n13            2                       (Unspecified)
system.ruby.network.data_traffic_distribution.n4.n14            2                       (Unspecified)
system.ruby.network.data_traffic_distribution.n4.n15            0                       (Unspecified)
system.ruby.network.data_traffic_distribution.n4.n2            1                       (Unspecified)
system.ruby.network.data_traffic_distribution.n4.n3            0                       (Unspecified)
system.ruby.network.data_traffic_distribution.n4.n4            0                       (Unspecified)
system.ruby.network.data_traffic_distribution.n4.n5            0                       (Unspecified)
system.ruby.network.data_traffic_distribution.n4.n6            2                       (Unspecified)
system.ruby.network.data_traffic_distribution.n4.n7            2                       (Unspecified)
system.ruby.network.data_traffic_distribution.n4.n8            0                       (Unspecified)
system.ruby.network.data_traffic_distribution.n4.n9            1                       (Unspecified)
system.ruby.network.data_traffic_distribution.n5.n0            2                       (Unspecified)
system.ruby.network.data_traffic_distribution.n5.n1            1                       (Unspecified)
system.ruby.network.data_traffic_distribution.n5.n10            1                       (Unspecified)
system.ruby.network.data_traffic_distribution.n5.n11            1                       (Unspecified)
system.ruby.network.data_traffic_distribution.n5.n12            1                       (Unspecified)
system.ruby.network.data_traffic_distribution.n5.n13            2                       (Unspecified)
system.ruby.network.data_traffic_distribution.n5.n14            1                       (Unspecified)
system.ruby.network.data_traffic_distribution.n5.n15            1                       (Unspecified)
system.ruby.network.data_traffic_distribution.n5.n2            1                       (Unspecified)
system.ruby.network.data_traffic_distribution.n5.n3            1                       (Unspecified)
system.ruby.network.data_traffic_distribution.n5.n4            0                       (Unspecified)
system.ruby.network.data_traffic_distribution.n5.n5            0                       (Unspecified)
system.ruby.network.data_traffic_distribution.n5.n6            0                       (Unspecified)
system.ruby.network.data_traffic_distribution.n5.n7            0                       (Unspecified)
system.ruby.network.data_traffic_distribution.n5.n8            1                       (Unspecified)
system.ruby.network.data_traffic_distribution.n5.n9            0                       (Unspecified)
system.ruby.network.data_traffic_distribution.n6.n0            2                       (Unspecified)
system.ruby.network.data_traffic_distribution.n6.n1            1                       (Unspecified)
system.ruby.network.data_traffic_distribution.n6.n10            1                       (Unspecified)
system.ruby.network.data_traffic_distribution.n6.n11            0                       (Unspecified)
system.ruby.network.data_traffic_distribution.n6.n12            2                       (Unspecified)
system.ruby.network.data_traffic_distribution.n6.n13            1                       (Unspecified)
system.ruby.network.data_traffic_distribution.n6.n14            0                       (Unspecified)
system.ruby.network.data_traffic_distribution.n6.n15            1                       (Unspecified)
system.ruby.network.data_traffic_distribution.n6.n2            0                       (Unspecified)
system.ruby.network.data_traffic_distribution.n6.n3            1                       (Unspecified)
system.ruby.network.data_traffic_distribution.n6.n4            1                       (Unspecified)
system.ruby.network.data_traffic_distribution.n6.n5            0                       (Unspecified)
system.ruby.network.data_traffic_distribution.n6.n6            0                       (Unspecified)
system.ruby.network.data_traffic_distribution.n6.n7            1                       (Unspecified)
system.ruby.network.data_traffic_distribution.n6.n8            0                       (Unspecified)
system.ruby.network.data_traffic_distribution.n6.n9            2                       (Unspecified)
system.ruby.network.data_traffic_distribution.n7.n0           10                       (Unspecified)
system.ruby.network.data_traffic_distribution.n7.n1           12                       (Unspecified)
system.ruby.network.data_traffic_distribution.n7.n10           12                       (Unspecified)
system.ruby.network.data_traffic_distribution.n7.n11           16                       (Unspecified)
system.ruby.network.data_traffic_distribution.n7.n12           11                       (Unspecified)
system.ruby.network.data_traffic_distribution.n7.n13           15                       (Unspecified)
system.ruby.network.data_traffic_distribution.n7.n14            6                       (Unspecified)
system.ruby.network.data_traffic_distribution.n7.n15            9                       (Unspecified)
system.ruby.network.data_traffic_distribution.n7.n2           11                       (Unspecified)
system.ruby.network.data_traffic_distribution.n7.n3           18                       (Unspecified)
system.ruby.network.data_traffic_distribution.n7.n4           14                       (Unspecified)
system.ruby.network.data_traffic_distribution.n7.n5            9                       (Unspecified)
system.ruby.network.data_traffic_distribution.n7.n6           12                       (Unspecified)
system.ruby.network.data_traffic_distribution.n7.n7            9                       (Unspecified)
system.ruby.network.data_traffic_distribution.n7.n8            7                       (Unspecified)
system.ruby.network.data_traffic_distribution.n7.n9           13                       (Unspecified)
system.ruby.network.data_traffic_distribution.n8.n0            1                       (Unspecified)
system.ruby.network.data_traffic_distribution.n8.n1            2                       (Unspecified)
system.ruby.network.data_traffic_distribution.n8.n10            1                       (Unspecified)
system.ruby.network.data_traffic_distribution.n8.n11            0                       (Unspecified)
system.ruby.network.data_traffic_distribution.n8.n12            1                       (Unspecified)
system.ruby.network.data_traffic_distribution.n8.n13            2                       (Unspecified)
system.ruby.network.data_traffic_distribution.n8.n14            2                       (Unspecified)
system.ruby.network.data_traffic_distribution.n8.n15            1                       (Unspecified)
system.ruby.network.data_traffic_distribution.n8.n2            1                       (Unspecified)
system.ruby.network.data_traffic_distribution.n8.n3            0                       (Unspecified)
system.ruby.network.data_traffic_distribution.n8.n4            3                       (Unspecified)
system.ruby.network.data_traffic_distribution.n8.n5            2                       (Unspecified)
system.ruby.network.data_traffic_distribution.n8.n6            1                       (Unspecified)
system.ruby.network.data_traffic_distribution.n8.n7            0                       (Unspecified)
system.ruby.network.data_traffic_distribution.n8.n8            0                       (Unspecified)
system.ruby.network.data_traffic_distribution.n8.n9            0                       (Unspecified)
system.ruby.network.data_traffic_distribution.n9.n0            2                       (Unspecified)
system.ruby.network.data_traffic_distribution.n9.n1            1                       (Unspecified)
system.ruby.network.data_traffic_distribution.n9.n10            0                       (Unspecified)
system.ruby.network.data_traffic_distribution.n9.n11            5                       (Unspecified)
system.ruby.network.data_traffic_distribution.n9.n12            3                       (Unspecified)
system.ruby.network.data_traffic_distribution.n9.n13            2                       (Unspecified)
system.ruby.network.data_traffic_distribution.n9.n14            1                       (Unspecified)
system.ruby.network.data_traffic_distribution.n9.n15            0                       (Unspecified)
system.ruby.network.data_traffic_distribution.n9.n2            2                       (Unspecified)
system.ruby.network.data_traffic_distribution.n9.n3            2                       (Unspecified)
system.ruby.network.data_traffic_distribution.n9.n4            0                       (Unspecified)
system.ruby.network.data_traffic_distribution.n9.n5            0                       (Unspecified)
system.ruby.network.data_traffic_distribution.n9.n6            0                       (Unspecified)
system.ruby.network.data_traffic_distribution.n9.n7            1                       (Unspecified)
system.ruby.network.data_traffic_distribution.n9.n8            4                       (Unspecified)
system.ruby.network.data_traffic_distribution.n9.n9            0                       (Unspecified)
system.ruby.network.ext_in_link_utilization        10534                       (Unspecified)
system.ruby.network.ext_out_link_utilization        10527                       (Unspecified)
system.ruby.network.flit_network_latency |           0                       |           0                       |      100058                       |        8455                       |       53813                       (Unspecified)
system.ruby.network.flit_queueing_latency |           0                       |           0                       |      136437                       |       15349                       |       77029                       (Unspecified)
system.ruby.network.flits_injected       |           0      0.00%      0.00% |           0      0.00%      0.00% |        4799     45.51%     45.51% |         990      9.39%     54.90% |        4755     45.10%    100.00% (Unspecified)
system.ruby.network.flits_injected::total        10544                       (Unspecified)
system.ruby.network.flits_received       |           0      0.00%      0.00% |           0      0.00%      0.00% |        4785     45.46%     45.46% |         990      9.41%     54.86% |        4751     45.14%    100.00% (Unspecified)
system.ruby.network.flits_received::total        10526                       (Unspecified)
system.ruby.network.int_link_utilization        28498                       (Unspecified)
system.ruby.network.packet_network_latency |           0                       |           0                       |       45397                       |        8455                       |       13423                       (Unspecified)
system.ruby.network.packet_queueing_latency |           0                       |           0                       |       57617                       |       15349                       |       15405                       (Unspecified)
system.ruby.network.packets_injected     |           0      0.00%      0.00% |           0      0.00%      0.00% |        1735     47.20%     47.20% |         990     26.93%     74.13% |         951     25.87%    100.00% (Unspecified)
system.ruby.network.packets_injected::total         3676                       (Unspecified)
system.ruby.network.packets_received     |           0      0.00%      0.00% |           0      0.00%      0.00% |        1729     47.12%     47.12% |         990     26.98%     74.11% |         950     25.89%    100.00% (Unspecified)
system.ruby.network.packets_received::total         3669                       (Unspecified)
system.ruby.network.routers00.buffer_reads         1118                       (Unspecified)
system.ruby.network.routers00.buffer_writes         1118                       (Unspecified)
system.ruby.network.routers00.crossbar_activity         1118                       (Unspecified)
system.ruby.network.routers00.sw_input_arbiter_activity         1138                       (Unspecified)
system.ruby.network.routers00.sw_output_arbiter_activity         1118                       (Unspecified)
system.ruby.network.routers01.buffer_reads         1954                       (Unspecified)
system.ruby.network.routers01.buffer_writes         1954                       (Unspecified)
system.ruby.network.routers01.crossbar_activity         1954                       (Unspecified)
system.ruby.network.routers01.sw_input_arbiter_activity         1970                       (Unspecified)
system.ruby.network.routers01.sw_output_arbiter_activity         1954                       (Unspecified)
system.ruby.network.routers02.buffer_reads         2287                       (Unspecified)
system.ruby.network.routers02.buffer_writes         2287                       (Unspecified)
system.ruby.network.routers02.crossbar_activity         2287                       (Unspecified)
system.ruby.network.routers02.sw_input_arbiter_activity         2314                       (Unspecified)
system.ruby.network.routers02.sw_output_arbiter_activity         2287                       (Unspecified)
system.ruby.network.routers03.buffer_reads         3646                       (Unspecified)
system.ruby.network.routers03.buffer_writes         3646                       (Unspecified)
system.ruby.network.routers03.crossbar_activity         3646                       (Unspecified)
system.ruby.network.routers03.sw_input_arbiter_activity         3727                       (Unspecified)
system.ruby.network.routers03.sw_output_arbiter_activity         3646                       (Unspecified)
system.ruby.network.routers04.buffer_reads         1308                       (Unspecified)
system.ruby.network.routers04.buffer_writes         1308                       (Unspecified)
system.ruby.network.routers04.crossbar_activity         1308                       (Unspecified)
system.ruby.network.routers04.sw_input_arbiter_activity         1316                       (Unspecified)
system.ruby.network.routers04.sw_output_arbiter_activity         1308                       (Unspecified)
system.ruby.network.routers05.buffer_reads         2093                       (Unspecified)
system.ruby.network.routers05.buffer_writes         2093                       (Unspecified)
system.ruby.network.routers05.crossbar_activity         2093                       (Unspecified)
system.ruby.network.routers05.sw_input_arbiter_activity         2110                       (Unspecified)
system.ruby.network.routers05.sw_output_arbiter_activity         2093                       (Unspecified)
system.ruby.network.routers06.buffer_reads         2443                       (Unspecified)
system.ruby.network.routers06.buffer_writes         2443                       (Unspecified)
system.ruby.network.routers06.crossbar_activity         2443                       (Unspecified)
system.ruby.network.routers06.sw_input_arbiter_activity         2488                       (Unspecified)
system.ruby.network.routers06.sw_output_arbiter_activity         2443                       (Unspecified)
system.ruby.network.routers07.buffer_reads         4961                       (Unspecified)
system.ruby.network.routers07.buffer_writes         4961                       (Unspecified)
system.ruby.network.routers07.crossbar_activity         4961                       (Unspecified)
system.ruby.network.routers07.sw_input_arbiter_activity         5126                       (Unspecified)
system.ruby.network.routers07.sw_output_arbiter_activity         4961                       (Unspecified)
system.ruby.network.routers08.buffer_reads         1382                       (Unspecified)
system.ruby.network.routers08.buffer_writes         1382                       (Unspecified)
system.ruby.network.routers08.crossbar_activity         1382                       (Unspecified)
system.ruby.network.routers08.sw_input_arbiter_activity         1392                       (Unspecified)
system.ruby.network.routers08.sw_output_arbiter_activity         1382                       (Unspecified)
system.ruby.network.routers09.buffer_reads         2053                       (Unspecified)
system.ruby.network.routers09.buffer_writes         2053                       (Unspecified)
system.ruby.network.routers09.crossbar_activity         2053                       (Unspecified)
system.ruby.network.routers09.sw_input_arbiter_activity         2084                       (Unspecified)
system.ruby.network.routers09.sw_output_arbiter_activity         2053                       (Unspecified)
system.ruby.network.routers10.buffer_reads         2489                       (Unspecified)
system.ruby.network.routers10.buffer_writes         2489                       (Unspecified)
system.ruby.network.routers10.crossbar_activity         2489                       (Unspecified)
system.ruby.network.routers10.sw_input_arbiter_activity         2515                       (Unspecified)
system.ruby.network.routers10.sw_output_arbiter_activity         2489                       (Unspecified)
system.ruby.network.routers11.buffer_reads         4997                       (Unspecified)
system.ruby.network.routers11.buffer_writes         4997                       (Unspecified)
system.ruby.network.routers11.crossbar_activity         4997                       (Unspecified)
system.ruby.network.routers11.sw_input_arbiter_activity         5135                       (Unspecified)
system.ruby.network.routers11.sw_output_arbiter_activity         4997                       (Unspecified)
system.ruby.network.routers12.buffer_reads          990                       (Unspecified)
system.ruby.network.routers12.buffer_writes          990                       (Unspecified)
system.ruby.network.routers12.crossbar_activity          990                       (Unspecified)
system.ruby.network.routers12.sw_input_arbiter_activity          991                       (Unspecified)
system.ruby.network.routers12.sw_output_arbiter_activity          990                       (Unspecified)
system.ruby.network.routers13.buffer_reads         1721                       (Unspecified)
system.ruby.network.routers13.buffer_writes         1721                       (Unspecified)
system.ruby.network.routers13.crossbar_activity         1721                       (Unspecified)
system.ruby.network.routers13.sw_input_arbiter_activity         1734                       (Unspecified)
system.ruby.network.routers13.sw_output_arbiter_activity         1721                       (Unspecified)
system.ruby.network.routers14.buffer_reads         2219                       (Unspecified)
system.ruby.network.routers14.buffer_writes         2219                       (Unspecified)
system.ruby.network.routers14.crossbar_activity         2219                       (Unspecified)
system.ruby.network.routers14.sw_input_arbiter_activity         2236                       (Unspecified)
system.ruby.network.routers14.sw_output_arbiter_activity         2219                       (Unspecified)
system.ruby.network.routers15.buffer_reads         3367                       (Unspecified)
system.ruby.network.routers15.buffer_writes         3367                       (Unspecified)
system.ruby.network.routers15.crossbar_activity         3367                       (Unspecified)
system.ruby.network.routers15.sw_input_arbiter_activity         3421                       (Unspecified)
system.ruby.network.routers15.sw_output_arbiter_activity         3367                       (Unspecified)

---------- End Simulation Statistics   ----------
